%nproc=8 
%mem=1600mb
# M062X/6-311+G(2df,2p) pop=Hirshfeld scf=tight 

Acetone in gas                                                                     

           0           1
  8       0.000000000     0.000000000     1.396962000
  6       0.000000000     0.000000000     0.188800000
  6       0.000000000     1.275657000    -0.611044000
  6       0.000000000    -1.275657000    -0.611044000
  1       0.000000000     2.142271000     0.042196000
  1       0.000000000    -2.142271000     0.042196000
  1       0.871902000     1.314824000    -1.265092000
  1       0.871902000    -1.314824000    -1.265092000
  1      -0.871902000     1.314824000    -1.265092000
  1      -0.871902000    -1.314824000    -1.265092000

