%nproc=8 
%mem=1600mb
# HF/6-31G(d) pop=Hirshfeld scf=tight                       

Formamide                                                                              

           0           1
  6             -0.164665    0.381599    0.000000
  8             -1.179589   -0.245182    0.000000  
  7              1.073259   -0.153007    0.000000 
  1             -0.152430    1.472206    0.000000
  1              1.175971   -1.143194    0.000000
  1              1.888352    0.413898    0.000000

