%nproc=8
%mem=2000mb
# CCSD=(Full)  6-311+G(2d,p) pop=(Hirshfeld) scf=(tight) density=current                

Formaldehyde                                                                          

           0           1
  8       0.000000000     0.000000000     0.669965000
  6       0.000000000     0.000000000    -0.521138000
  1       0.000000000     0.937548000    -1.116446000
  1       0.000000000    -0.937548000    -1.116446000

