# integral(grid=ultrafine) tpsstpss/genecp pop=hirshfeld

tpss/jun-cc-pVTZ-PP

0 2
Ag 0.000000  0.000000  1.446702
Ag 0.000000  1.442787 -0.723351
Ag 0.000000 -1.442787 -0.723351

Ag     0 
S   9   1.00
    222.6450000              0.0007000        
     20.1725000             -0.0798090        
     12.7197000              0.4589790        
      8.0021100             -0.5218260        
      5.0205300             -0.4075440        
      1.5208500              0.8414580        
      0.6949200              0.4956480        
      0.1729330              0.0276600        
      0.0818970             -0.0086430        
S   9   1.00
    222.6450000             -0.0002080        
     20.1725000              0.0228050        
     12.7197000             -0.1373250        
      8.0021100              0.1730850        
      5.0205300              0.1057550        
      1.5208500             -0.3140630        
      0.6949200             -0.2985340        
      0.1729330              0.2313240        
      0.0818970              0.5969110        
S   9   1.00
    222.6450000             -0.0002500        
     20.1725000              0.0210250        
     12.7197000             -0.1682510        
      8.0021100              0.1442000        
      5.0205300              0.4139110        
      1.5208500             -1.1739400        
      0.6949200              0.1871810        
      0.1729330              1.7116850        
      0.0818970             -0.5350550        
S   9   1.00
    222.6450000             -0.0007140        
     20.1725000              0.0726550        
     12.7197000             -0.4696600        
      8.0021100              0.5845510        
      5.0205300              0.5663560        
      1.5208500             -3.2222430        
      0.6949200              3.1502630        
      0.1729330             -0.1517250        
      0.0818970             -1.9921310        
S   1   1.00
      0.0351900              1.0000000        
S   1   1.00
      0.0151000              1.0000000        
P   8   1.00
     22.0490000             -0.0058860        
     13.8356000              0.0763570        
      7.6299400             -0.2661720        
      2.1037200              0.4622010        
      1.0626200              0.4894950        
      0.5193830              0.2000890        
      0.2051990              0.0193450        
      0.0829790             -0.0007170        
P   8   1.00
     22.0490000              0.0005940        
     13.8356000             -0.0170800        
      7.6299400              0.0679410        
      2.1037200             -0.1427200        
      1.0626200             -0.1683930        
      0.5193830             -0.0329600        
      0.2051990              0.3267400        
      0.0829790              0.5580540        
P   8   1.00
     22.0490000              0.0022350        
     13.8356000             -0.0383630        
      7.6299400              0.1454190        
      2.1037200             -0.3278470        
      1.0626200             -0.3817440        
      0.5193830              0.2524550        
      0.2051990              0.6915130        
      0.0829790              0.2763110        
P   8   1.00
     22.0490000              0.0087290        
     13.8356000             -0.0828090        
      7.6299400              0.2865900        
      2.1037200             -0.8760860        
      1.0626200             -0.3443670        
      0.5193830              1.5334530        
      0.2051990             -0.2330540        
      0.0829790             -0.7471730        
P   1   1.00
      0.0331440              1.0000000        
P   1   1.00
      0.0132000              1.0000000        
D   7   1.00
     73.2665000              0.0004510        
     18.7729000              0.0059840        
     10.9237000             -0.0189680        
      3.0019700              0.1923860        
      1.4717700              0.3721720        
      0.6847640              0.3721880        
      0.3003970              0.2300660        
D   7   1.00
     73.2665000             -0.0006060        
     18.7729000             -0.0075860        
     10.9237000              0.0246380        
      3.0019700             -0.3135690        
      1.4717700             -0.5000300        
      0.6847640              0.1211390        
      0.3003970              0.5946850        
D   7   1.00
     73.2665000              0.0004890        
     18.7729000              0.0155170        
     10.9237000             -0.0470560        
      3.0019700              0.6569190        
      1.4717700              0.2238260        
      0.6847640             -1.1068170        
      0.3003970              0.1657200        
D   1   1.00
      0.1201550              1.0000000        
D   1   1.00
      0.0481000              1.0000000        
F   1   1.00
      2.5431000              1.0000000        
F   1   1.00
      0.7381000              1.0000000        
F   1   1.00
      0.2889000              1.0000000        
G   1   1.00
      1.5751000              1.0000000        
****

AG     0
AG-ECP     4     28
g-ul potential
  1
2      1.0000000              0.0000000        
s-ul potential
  2
2     12.5677140            255.0547710        
2      6.9976620             36.9833930        
p-ul potential
  4
2     11.3164960             60.7157050        
2     10.9580630            121.4438890        
2      7.1114000             10.1718660        
2      6.7733190             20.4865640        
d-ul potential
  4
2      8.9284370             29.5049380        
2     11.1025670             44.0187360        
2      5.5432120              5.3683330        
2      3.9288350              7.4083750        
f-ul potential
  2
2     11.0129130            -12.6234030        
2     11.0198980            -16.7643270        


